@<TRIPOS>MOLECULE
*****
 43 45 0 0 0
SMALL
GASTEIGER

@<TRIPOS>ATOM
      1 C          -0.0724    0.4040   -1.1357 C.ar    1  LIG1        0.0343
      2 N           1.2128    0.0557   -0.9175 N.ar    1  LIG1       -0.2582
      3 C           1.5051   -0.6817    0.1877 C.ar    1  LIG1        0.0603
      4 C           2.9636   -1.0327    0.3273 C.3     1  LIG1        0.0734
      5 O           4.8402   -2.9716    0.4212 O.2     1  LIG1       -0.2488
      6 C           0.5275   -1.0392    1.1259 C.ar    1  LIG1        0.0136
      7 C          -0.8027   -0.7043    0.8195 C.ar    1  LIG1        0.1290
      8 O          -1.8107   -1.0802    1.6761 O.3     1  LIG1       -0.4945
      9 C          -2.3257   -2.3589    1.2951 C.3     1  LIG1        0.0788
     10 S           3.3475   -2.8078    0.3366 S.O     1  LIG1        0.0954
     11 C           2.9287   -3.1914   -1.2997 C.ar    1  LIG1        0.1981
     12 N           1.7133   -3.1662   -1.7994 N.ar    1  LIG1       -0.2199
     13 N           3.8421   -3.6298   -2.2202 N.ar    1  LIG1       -0.3310
     14 C           3.1813   -3.8644   -3.3967 C.ar    1  LIG1        0.0671
     15 C           1.8545   -3.5642   -3.1072 C.ar    1  LIG1        0.0935
     16 C           3.6102   -4.3011   -4.6495 C.ar    1  LIG1       -0.0328
     17 C           0.8886   -3.7014   -4.1131 C.ar    1  LIG1        0.0075
     18 C           2.6275   -4.4317   -5.6426 C.ar    1  LIG1       -0.0179
     19 C           1.2836   -4.1381   -5.3858 C.ar    1  LIG1        0.1222
     20 O           0.2575   -4.2368   -6.2889 O.3     1  LIG1       -0.4950
     21 C           0.5893   -4.6771   -7.5993 C.3     1  LIG1        0.0788
     22 C           0.8492   -1.7835    2.3902 C.3     1  LIG1       -0.0345
     23 C          -1.1211    0.0688   -0.2986 C.ar    1  LIG1        0.0095
     24 C          -2.5191    0.4866   -0.6270 C.3     1  LIG1       -0.0348
     25 H          -0.2343    0.9827   -2.0412 H       1  LIG1        0.0833
     26 H           3.3492   -0.6064    1.2598 H       1  LIG1        0.0470
     27 H           3.5439   -0.5756   -0.4833 H       1  LIG1        0.0470
     28 H          -3.1185   -2.6220    2.0016 H       1  LIG1        0.0660
     29 H          -1.5541   -3.1341    1.3491 H       1  LIG1        0.0660
     30 H          -2.7628   -2.3314    0.2916 H       1  LIG1        0.0660
     31 H           4.8295   -3.7420   -2.0362 H       1  LIG1        0.1679
     32 H           4.6506   -4.5299   -4.8543 H       1  LIG1        0.0640
     33 H          -0.1491   -3.4696   -3.9011 H       1  LIG1        0.0676
     34 H           2.9529   -4.7707   -6.6218 H       1  LIG1        0.0655
     35 H          -0.3332   -4.7009   -8.1875 H       1  LIG1        0.0660
     36 H           0.9994   -5.6922   -7.5828 H       1  LIG1        0.0660
     37 H           1.2773   -3.9793   -8.0879 H       1  LIG1        0.0660
     38 H           0.1333   -1.5489    3.1851 H       1  LIG1        0.0279
     39 H           1.8308   -1.5027    2.7832 H       1  LIG1        0.0279
     40 H           0.8279   -2.8626    2.2115 H       1  LIG1        0.0279
     41 H          -2.5236    1.3786   -1.2630 H       1  LIG1        0.0279
     42 H          -3.0782    0.7403    0.2794 H       1  LIG1        0.0279
     43 H          -3.0397   -0.3169   -1.1565 H       1  LIG1        0.0279
@<TRIPOS>BOND
     1     1    23   ar
     2     1     2   ar
     3     1    25    1
     4     3     2   ar
     5     3     4    1
     6     4    26    1
     7     4    27    1
     8     6     3   ar
     9     6    22    1
    10     7     6   ar
    11     7     8    1
    12     8     9    1
    13     9    28    1
    14     9    29    1
    15     9    30    1
    16    10     4    1
    17    10    11    1
    18    10     5    2
    19    11    12   ar
    20    12    15   ar
    21    13    11   ar
    22    13    14   ar
    23    13    31    1
    24    14    15   ar
    25    15    17   ar
    26    16    14   ar
    27    16    18   ar
    28    16    32    1
    29    17    19   ar
    30    17    33    1
    31    18    34    1
    32    19    18   ar
    33    19    20    1
    34    20    21    1
    35    21    35    1
    36    21    36    1
    37    21    37    1
    38    22    38    1
    39    22    39    1
    40    22    40    1
    41    23     7   ar
    42    23    24    1
    43    24    41    1
    44    24    42    1
    45    24    43    1
