REMARK  5 active torsions:
REMARK  status: ('A' for Active; 'I' for Inactive)
REMARK    1  A    between atoms: C_3  and  C_4 
REMARK    2  A    between atoms: S_10  and  C_4 
REMARK    3  A    between atoms: C_7  and  O_8 
REMARK    4  A    between atoms: S_10  and  C_11 
REMARK    5  A    between atoms: C_19  and  O_20 
ROOT
ATOM      1  O   LIG d   1       4.840  -2.972   0.421  0.00  0.00    -0.249 OA
ATOM      2  S   LIG d   1       3.348  -2.808   0.337  0.00  0.00     0.091 S 
ENDROOT
BRANCH   2   3
ATOM      3  C   LIG d   1       2.964  -1.033   0.327  0.00  0.00     0.177 C 
BRANCH   3   4
ATOM      4  C   LIG d   1       1.505  -0.682   0.188  0.00  0.00     0.054 A 
ATOM      5  N   LIG d   1       1.213   0.056  -0.917  0.00  0.00    -0.263 NA
ATOM      6  C   LIG d   1      -0.072   0.404  -1.136  0.00  0.00     0.126 A 
ATOM      7  C   LIG d   1      -1.121   0.069  -0.299  0.00  0.00    -0.011 A 
ATOM      8  C   LIG d   1      -0.803  -0.704   0.820  0.00  0.00     0.083 A 
ATOM      9  C   LIG d   1      -2.519   0.487  -0.627  0.00  0.00     0.052 C 
ATOM     10  C   LIG d   1       0.527  -1.039   1.126  0.00  0.00    -0.003 A 
ATOM     11  C   LIG d   1       0.849  -1.784   2.390  0.00  0.00     0.053 C 
BRANCH   8  12
ATOM     12  O   LIG d   1      -1.811  -1.080   1.676  0.00  0.00    -0.355 OA
ATOM     13  C   LIG d   1      -2.326  -2.359   1.295  0.00  0.00     0.210 C 
ENDBRANCH   8  12
ENDBRANCH   3   4
ENDBRANCH   2   3
BRANCH   2  14
ATOM     14  C   LIG d   1       2.929  -3.191  -1.300  0.00  0.00     0.198 A 
ATOM     15  N   LIG d   1       1.713  -3.166  -1.799  0.00  0.00    -0.220 NA
ATOM     16  C   LIG d   1       1.855  -3.564  -3.107  0.00  0.00     0.089 A 
ATOM     17  C   LIG d   1       3.181  -3.864  -3.397  0.00  0.00     0.063 A 
ATOM     18  C   LIG d   1       0.889  -3.701  -4.113  0.00  0.00     0.070 A 
ATOM     19  N   LIG d   1       3.842  -3.630  -2.220  0.00  0.00    -0.331 N 
ATOM     20  C   LIG d   1       3.610  -4.301  -4.649  0.00  0.00     0.035 A 
ATOM     21  H   LIG d   1       4.830  -3.742  -2.036  0.00  0.00     0.168 HD
ATOM     22  C   LIG d   1       2.627  -4.432  -5.643  0.00  0.00     0.039 A 
ATOM     23  C   LIG d   1       1.284  -4.138  -5.386  0.00  0.00     0.070 A 
BRANCH  23  24
ATOM     24  O   LIG d   1       0.258  -4.237  -6.289  0.00  0.00    -0.356 OA
ATOM     25  C   LIG d   1       0.589  -4.677  -7.599  0.00  0.00     0.210 C 
ENDBRANCH  23  24
ENDBRANCH   2  14
TORSDOF 5
