REMARK  6 active torsions:
REMARK  status: ('A' for Active; 'I' for Inactive)
REMARK    1  A    between atoms: S_1  and  C_10 
REMARK    2  A    between atoms: S_1  and  C_13 
REMARK    3  A    between atoms: O_5  and  C_16 
REMARK    4  A    between atoms: O_5  and  C_24 
REMARK    5  A    between atoms: C_10  and  C_11 
REMARK    6  A    between atoms: C_24  and  C_25 
ROOT
ATOM      1  N   LIG d   1      -1.341  -1.943   0.881  0.00  0.00    -0.264 NA
ATOM      2  C   LIG d   1      -0.812  -0.996   0.056  0.00  0.00     0.054 A 
ATOM      3  C   LIG d   1      -1.614  -0.085  -0.647  0.00  0.00    -0.003 A 
ATOM      4  C   LIG d   1      -2.996  -0.155  -0.418  0.00  0.00     0.078 A 
ATOM      5  C   LIG d   1      -1.060   0.974  -1.556  0.00  0.00     0.053 C 
ATOM      6  C   LIG d   1      -3.548  -1.135   0.395  0.00  0.00     0.056 A 
ATOM      7  C   LIG d   1      -2.682  -2.002   1.021  0.00  0.00     0.119 A 
ENDROOT
BRANCH   2   8
ATOM      8  C   LIG d   1       0.694  -0.995  -0.011  0.00  0.00     0.177 C 
BRANCH   8   9
ATOM      9  S   LIG d   1       1.405   0.206   1.149  0.00  0.00     0.091 S 
ATOM     10  O   LIG d   1       1.122   1.615   0.706  0.00  0.00    -0.249 OA
BRANCH   9  11
ATOM     11  C   LIG d   1       3.070  -0.070   0.754  0.00  0.00     0.198 A 
ATOM     12  N   LIG d   1       3.924   0.934   0.383  0.00  0.00    -0.331 N 
ATOM     13  C   LIG d   1       5.152   0.380   0.140  0.00  0.00     0.063 A 
ATOM     14  H   LIG d   1       3.663   1.908   0.307  0.00  0.00     0.168 HD
ATOM     15  C   LIG d   1       4.967  -0.977   0.389  0.00  0.00     0.086 A 
ATOM     16  C   LIG d   1       6.371   0.928  -0.263  0.00  0.00     0.032 A 
ATOM     17  N   LIG d   1       3.671  -1.239   0.767  0.00  0.00    -0.221 NA
ATOM     18  C   LIG d   1       6.050  -1.854   0.234  0.00  0.00     0.034 A 
ATOM     19  C   LIG d   1       7.285  -1.331  -0.169  0.00  0.00     0.002 A 
ATOM     20  C   LIG d   1       7.440   0.036  -0.412  0.00  0.00     0.002 A 
ENDBRANCH   9  11
ENDBRANCH   8   9
ENDBRANCH   2   8
BRANCH   4  21
ATOM     21  O   LIG d   1      -3.851   0.718  -1.039  0.00  0.00    -0.342 OA
BRANCH  21  22
ATOM     22  C   LIG d   1      -4.033   1.909  -0.247  0.00  0.00     0.293 C 
BRANCH  22  23
ATOM     23  C   LIG d   1      -5.486   2.080   0.166  0.00  0.00     0.408 C 
ATOM     24  F   LIG d   1      -6.309   2.150  -0.903  0.00  0.00    -0.169 F 
ATOM     25  F   LIG d   1      -5.907   1.062   0.950  0.00  0.00    -0.169 F 
ATOM     26  F   LIG d   1      -5.644   3.224   0.873  0.00  0.00    -0.169 F 
ENDBRANCH  22  23
ENDBRANCH  21  22
ENDBRANCH   4  21
TORSDOF 6
