@<TRIPOS>MOLECULE
*****
 39 41 0 0 0
SMALL
GASTEIGER

@<TRIPOS>ATOM
      1 S           1.4048    0.2056    1.1485 S.O     1  LIG1        0.0954
      2 F          -6.3086    2.1503   -0.9032 F       1  LIG1       -0.1671
      3 F          -5.9071    1.0618    0.9499 F       1  LIG1       -0.1671
      4 F          -5.6443    3.2240    0.8730 F       1  LIG1       -0.1671
      5 O          -3.8511    0.7178   -1.0389 O.3     1  LIG1       -0.4827
      6 O           1.1219    1.6146    0.7059 O.2     1  LIG1       -0.2488
      7 N           3.9236    0.9343    0.3831 N.ar    1  LIG1       -0.3310
      8 N           3.6715   -1.2387    0.7673 N.ar    1  LIG1       -0.2200
      9 N          -1.3412   -1.9430    0.8814 N.ar    1  LIG1       -0.2585
     10 C           0.6943   -0.9951   -0.0108 C.3     1  LIG1        0.0734
     11 C          -0.8123   -0.9959    0.0555 C.ar    1  LIG1        0.0603
     12 C          -1.6141   -0.0852   -0.6470 C.ar    1  LIG1        0.0134
     13 C           3.0702   -0.0697    0.7538 C.ar    1  LIG1        0.1981
     14 C           5.1520    0.3798    0.1397 C.ar    1  LIG1        0.0669
     15 C           4.9674   -0.9771    0.3892 C.ar    1  LIG1        0.0900
     16 C          -2.9956   -0.1555   -0.4185 C.ar    1  LIG1        0.1270
     17 C          -1.0598    0.9737   -1.5563 C.3     1  LIG1       -0.0345
     18 C           6.3711    0.9279   -0.2627 C.ar    1  LIG1       -0.0362
     19 C          -3.5480   -1.1349    0.3951 C.ar    1  LIG1       -0.0015
     20 C           6.0500   -1.8544    0.2338 C.ar    1  LIG1       -0.0342
     21 C          -2.6816   -2.0016    1.0207 C.ar    1  LIG1        0.0314
     22 C           7.4397    0.0362   -0.4123 C.ar    1  LIG1       -0.0597
     23 C           7.2855   -1.3313   -0.1692 C.ar    1  LIG1       -0.0596
     24 C          -4.0333    1.9086   -0.2473 C.3     1  LIG1        0.1842
     25 C          -5.4858    2.0797    0.1659 C.3     1  LIG1        0.4236
     26 H           3.6635    1.9079    0.3066 H       1  LIG1        0.1679
     27 H           1.0605   -1.9890    0.2731 H       1  LIG1        0.0470
     28 H           1.0553   -0.8030   -1.0249 H       1  LIG1        0.0470
     29 H          -0.0976    0.6927   -1.9903 H       1  LIG1        0.0279
     30 H          -0.9407    1.9140   -1.0102 H       1  LIG1        0.0279
     31 H          -1.7297    1.1469   -2.4057 H       1  LIG1        0.0279
     32 H           6.4926    1.9892   -0.4504 H       1  LIG1        0.0639
     33 H          -4.6187   -1.2162    0.5402 H       1  LIG1        0.0669
     34 H           5.9252   -2.9145    0.4245 H       1  LIG1        0.0639
     35 H          -3.0473   -2.7872    1.6756 H       1  LIG1        0.0831
     36 H           8.4111    0.4162   -0.7235 H       1  LIG1        0.0618
     37 H           8.1342   -2.0002   -0.2928 H       1  LIG1        0.0618
     38 H          -3.7365    2.7566   -0.8741 H       1  LIG1        0.0788
     39 H          -3.3938    1.9259    0.6454 H       1  LIG1        0.0788
@<TRIPOS>BOND
     1     1     6    2
     2     1    10    1
     3     1    13    1
     4     2    25    1
     5     3    25    1
     6     4    25    1
     7     5    16    1
     8     5    24    1
     9     7    13   ar
    10     7    14   ar
    11     7    26    1
    12     8    13   ar
    13     8    15   ar
    14     9    11   ar
    15     9    21   ar
    16    10    11    1
    17    10    27    1
    18    10    28    1
    19    11    12   ar
    20    12    16   ar
    21    12    17    1
    22    14    15   ar
    23    14    18   ar
    24    15    20   ar
    25    16    19   ar
    26    17    29    1
    27    17    30    1
    28    17    31    1
    29    18    22   ar
    30    18    32    1
    31    19    21   ar
    32    19    33    1
    33    20    23   ar
    34    20    34    1
    35    21    35    1
    36    22    23   ar
    37    22    36    1
    38    23    37    1
    39    24    25    1
    40    24    38    1
    41    24    39    1
