REMARK  5 active torsions:
REMARK  status: ('A' for Active; 'I' for Inactive)
REMARK    1  A    between atoms: S_1  and  C_8 
REMARK    2  A    between atoms: S_1  and  C_11 
REMARK    3  A    between atoms: O_2  and  C_13 
REMARK    4  A    between atoms: O_4  and  C_20 
REMARK    5  A    between atoms: C_8  and  C_9 
ROOT
ATOM      1  S   LIG d   1       1.343   0.943  -0.159  0.00  0.00     0.091 S 
ATOM      2  O   LIG d   1       1.180   1.258  -1.618  0.00  0.00    -0.249 OA
ENDROOT
BRANCH   1   3
ATOM      3  C   LIG d   1       0.811  -0.753   0.212  0.00  0.00     0.177 C 
BRANCH   3   4
ATOM      4  C   LIG d   1      -0.680  -0.937   0.073  0.00  0.00     0.054 A 
ATOM      5  N   LIG d   1      -1.061  -1.699  -0.987  0.00  0.00    -0.263 NA
ATOM      6  C   LIG d   1      -2.379  -1.914  -1.183  0.00  0.00     0.126 A 
ATOM      7  C   LIG d   1      -3.379  -1.399  -0.377  0.00  0.00    -0.011 A 
ATOM      8  C   LIG d   1      -2.969  -0.584   0.681  0.00  0.00     0.083 A 
ATOM      9  C   LIG d   1      -4.817  -1.680  -0.677  0.00  0.00     0.052 C 
ATOM     10  C   LIG d   1      -1.608  -0.385   0.969  0.00  0.00    -0.003 A 
ATOM     11  C   LIG d   1      -1.193   0.425   2.164  0.00  0.00     0.053 C 
BRANCH   8  12
ATOM     12  O   LIG d   1      -3.924  -0.031   1.501  0.00  0.00    -0.355 OA
ATOM     13  C   LIG d   1      -4.295   1.264   1.023  0.00  0.00     0.210 C 
ENDBRANCH   8  12
ENDBRANCH   3   4
ENDBRANCH   1   3
BRANCH   1  14
ATOM     14  C   LIG d   1       3.040   0.682   0.070  0.00  0.00     0.198 A 
ATOM     15  N   LIG d   1       3.971   0.942  -0.899  0.00  0.00    -0.331 N 
ATOM     16  C   LIG d   1       5.203   0.614  -0.399  0.00  0.00     0.066 A 
ATOM     17  H   LIG d   1       3.755   1.297  -1.821  0.00  0.00     0.168 HD
ATOM     18  C   LIG d   1       4.940   0.166   0.891  0.00  0.00     0.086 A 
ATOM     19  C   LIG d   1       6.487   0.665  -0.943  0.00  0.00     0.068 A 
ATOM     20  N   LIG d   1       3.594   0.215   1.168  0.00  0.00    -0.221 NA
ATOM     21  C   LIG d   1       6.008  -0.257   1.694  0.00  0.00     0.037 A 
ATOM     22  C   LIG d   1       7.310  -0.216   1.169  0.00  0.00     0.039 A 
ATOM     23  C   LIG d   1       7.549   0.237  -0.132  0.00  0.00     0.070 A 
BRANCH  23  24
ATOM     24  O   LIG d   1       8.776   0.315  -0.738  0.00  0.00    -0.356 OA
ATOM     25  C   LIG d   1       9.897  -0.132   0.014  0.00  0.00     0.210 C 
ENDBRANCH  23  24
ENDBRANCH   1  14
TORSDOF 5
