@<TRIPOS>MOLECULE
*****
 43 45 0 0 0
SMALL
GASTEIGER

@<TRIPOS>ATOM
      1 S           1.3427    0.9427   -0.1585 S.O     1  LIG1        0.0954
      2 O          -3.9239   -0.0312    1.5009 O.3     1  LIG1       -0.4945
      3 O           1.1798    1.2583   -1.6180 O.2     1  LIG1       -0.2488
      4 O           8.7758    0.3150   -0.7377 O.3     1  LIG1       -0.4950
      5 N           3.9714    0.9423   -0.8989 N.ar    1  LIG1       -0.3309
      6 N           3.5941    0.2152    1.1678 N.ar    1  LIG1       -0.2200
      7 N          -1.0614   -1.6990   -0.9867 N.ar    1  LIG1       -0.2582
      8 C           0.8110   -0.7530    0.2124 C.3     1  LIG1        0.0734
      9 C          -0.6799   -0.9367    0.0728 C.ar    1  LIG1        0.0603
     10 C          -1.6076   -0.3854    0.9685 C.ar    1  LIG1        0.0136
     11 C           3.0402    0.6818    0.0695 C.ar    1  LIG1        0.1981
     12 C           5.2028    0.6143   -0.3988 C.ar    1  LIG1        0.0704
     13 C          -2.9690   -0.5844    0.6808 C.ar    1  LIG1        0.1290
     14 C           4.9399    0.1657    0.8908 C.ar    1  LIG1        0.0903
     15 C          -3.3786   -1.3994   -0.3765 C.ar    1  LIG1        0.0095
     16 C          -1.1931    0.4253    2.1640 C.3     1  LIG1       -0.0345
     17 C           6.4875    0.6653   -0.9431 C.ar    1  LIG1        0.0055
     18 C          -2.3792   -1.9136   -1.1828 C.ar    1  LIG1        0.0343
     19 C           6.0075   -0.2568    1.6942 C.ar    1  LIG1       -0.0308
     20 C           7.5489    0.2372   -0.1321 C.ar    1  LIG1        0.1222
     21 C           7.3103   -0.2162    1.1693 C.ar    1  LIG1       -0.0178
     22 C          -4.8167   -1.6801   -0.6773 C.3     1  LIG1       -0.0348
     23 C          -4.2947    1.2642    1.0226 C.3     1  LIG1        0.0788
     24 C           9.8972   -0.1321    0.0138 C.3     1  LIG1        0.0788
     25 H           3.7551    1.2969   -1.8210 H       1  LIG1        0.1679
     26 H           1.1261   -1.0265    1.2244 H       1  LIG1        0.0470
     27 H           1.3308   -1.4253   -0.4808 H       1  LIG1        0.0470
     28 H          -0.2661    0.0489    2.6057 H       1  LIG1        0.0279
     29 H          -1.9424    0.3770    2.9611 H       1  LIG1        0.0279
     30 H          -1.0558    1.4732    1.8809 H       1  LIG1        0.0279
     31 H           6.6669    1.0182   -1.9534 H       1  LIG1        0.0675
     32 H          -2.6106   -2.5367   -2.0428 H       1  LIG1        0.0833
     33 H           5.8230   -0.6097    2.7029 H       1  LIG1        0.0641
     34 H           8.1182   -0.5495    1.8128 H       1  LIG1        0.0655
     35 H          -5.2452   -0.8660   -1.2696 H       1  LIG1        0.0279
     36 H          -5.3967   -1.7979    0.2437 H       1  LIG1        0.0279
     37 H          -4.9251   -2.6123   -1.2424 H       1  LIG1        0.0279
     38 H          -5.0570    1.6630    1.6985 H       1  LIG1        0.0660
     39 H          -4.7276    1.2118    0.0182 H       1  LIG1        0.0660
     40 H          -3.4427    1.9520    1.0304 H       1  LIG1        0.0660
     41 H          10.7866   -0.0173   -0.6132 H       1  LIG1        0.0660
     42 H           9.8045   -1.1930    0.2686 H       1  LIG1        0.0660
     43 H          10.0406    0.4802    0.9101 H       1  LIG1        0.0660
@<TRIPOS>BOND
     1     1     3    2
     2     1     8    1
     3     1    11    1
     4     2    13    1
     5     2    23    1
     6     4    20    1
     7     4    24    1
     8     5    11   ar
     9     5    12   ar
    10     5    25    1
    11     6    11   ar
    12     6    14   ar
    13     7     9   ar
    14     7    18   ar
    15     8     9    1
    16     8    26    1
    17     8    27    1
    18     9    10   ar
    19    10    13   ar
    20    10    16    1
    21    12    14   ar
    22    12    17   ar
    23    13    15   ar
    24    14    19   ar
    25    15    18   ar
    26    15    22    1
    27    16    28    1
    28    16    29    1
    29    16    30    1
    30    17    20   ar
    31    17    31    1
    32    18    32    1
    33    19    21   ar
    34    19    33    1
    35    20    21   ar
    36    21    34    1
    37    22    35    1
    38    22    36    1
    39    22    37    1
    40    23    38    1
    41    23    39    1
    42    23    40    1
    43    24    41    1
    44    24    42    1
    45    24    43    1
