REMARK  7 active torsions:
REMARK  status: ('A' for Active; 'I' for Inactive)
REMARK    1  A    between atoms: S_1  and  C_12 
REMARK    2  A    between atoms: S_1  and  C_14 
REMARK    3  A    between atoms: O_4  and  C_18 
REMARK    4  A    between atoms: O_5  and  C_19 
REMARK    5  A    between atoms: O_5  and  C_25 
REMARK    6  A    between atoms: O_7  and  C_21 
REMARK    7  A    between atoms: C_14  and  C_15 
ROOT
ATOM      1  N   LIG d   1       0.592   1.096  -1.547  0.00  0.00    -0.331 N 
ATOM      2  N   LIG d   1      -0.182   2.925  -0.570  0.00  0.00    -0.221 NA
ATOM      3  C   LIG d   1       0.228   1.930  -2.571  0.00  0.00     0.066 A 
ATOM      4  C   LIG d   1       0.353   1.740  -0.360  0.00  0.00     0.198 A 
ATOM      5  C   LIG d   1      -0.254   3.063  -1.931  0.00  0.00     0.086 A 
ATOM      6  C   LIG d   1       0.278   1.800  -3.961  0.00  0.00     0.069 A 
ATOM      7  C   LIG d   1      -0.713   4.139  -2.702  0.00  0.00     0.037 A 
ATOM      8  C   LIG d   1      -0.192   2.880  -4.726  0.00  0.00     0.077 A 
ATOM      9  C   LIG d   1      -0.671   4.038  -4.103  0.00  0.00     0.039 A 
ATOM     10  H   LIG d   1       1.001   0.176  -1.641  0.00  0.00     0.168 HD
ENDROOT
BRANCH   4  11
ATOM     11  S   LIG d   1       0.682   1.054   1.207  0.00  0.00     0.092 S 
ATOM     12  O   LIG d   1       0.332   2.094   2.231  0.00  0.00    -0.249 OA
BRANCH  11  13
ATOM     13  C   LIG d   1       2.494   0.951   1.080  0.00  0.00     0.179 C 
BRANCH  13  14
ATOM     14  C   LIG d   1       2.966  -0.477   1.183  0.00  0.00     0.082 A 
ATOM     15  N   LIG d   1       3.331  -0.897   2.426  0.00  0.00    -0.262 NA
ATOM     16  C   LIG d   1       3.749  -2.171   2.572  0.00  0.00     0.120 A 
ATOM     17  C   LIG d   1       3.799  -3.080   1.535  0.00  0.00     0.059 A 
ATOM     18  C   LIG d   1       3.397  -2.649   0.275  0.00  0.00     0.104 A 
ATOM     19  C   LIG d   1       3.018  -1.319   0.069  0.00  0.00     0.127 A 
BRANCH  18  20
ATOM     20  O   LIG d   1       3.422  -3.539  -0.768  0.00  0.00    -0.353 OA
ATOM     21  C   LIG d   1       2.304  -4.426  -0.696  0.00  0.00     0.210 C 
ENDBRANCH  18  20
BRANCH  19  22
ATOM     22  O   LIG d   1       2.630  -0.819  -1.147  0.00  0.00    -0.351 OA
ATOM     23  C   LIG d   1       3.585  -1.064  -2.185  0.00  0.00     0.210 C 
ENDBRANCH  19  22
ENDBRANCH  13  14
ENDBRANCH  11  13
ENDBRANCH   4  11
BRANCH   8  24
ATOM     24  O   LIG d   1      -0.106   2.679  -6.078  0.00  0.00    -0.290 OA
BRANCH  24  25
ATOM     25  C   LIG d   1      -0.804   3.596  -6.904  0.00  0.00     0.505 C 
ATOM     26  F   LIG d   1      -0.143   4.779  -6.916  0.00  0.00    -0.184 F 
ATOM     27  F   LIG d   1      -0.756   3.112  -8.171  0.00  0.00    -0.184 F 
ENDBRANCH  24  25
ENDBRANCH   8  24
TORSDOF 7
