@<TRIPOS>MOLECULE
*****
 41 43 0 0 0
SMALL
GASTEIGER

@<TRIPOS>ATOM
      1 S           0.6821    1.0535    1.2069 S.O     1  LIG1        0.0955
      2 F          -0.1426    4.7788   -6.9157 F       1  LIG1       -0.1663
      3 F          -0.7556    3.1125   -8.1715 F       1  LIG1       -0.1663
      4 O           2.6298   -0.8188   -1.1466 O.3     1  LIG1       -0.4898
      5 O          -0.1064    2.6793   -6.0776 O.3     1  LIG1       -0.4342
      6 O           0.3318    2.0937    2.2311 O.2     1  LIG1       -0.2488
      7 O           3.4222   -3.5388   -0.7679 O.3     1  LIG1       -0.4913
      8 N           0.5920    1.0963   -1.5470 N.ar    1  LIG1       -0.3309
      9 N          -0.1823    2.9249   -0.5698 N.ar    1  LIG1       -0.2200
     10 N           3.3309   -0.8966    2.4258 N.ar    1  LIG1       -0.2551
     11 C           0.2277    1.9299   -2.5715 C.ar    1  LIG1        0.0704
     12 C           0.3532    1.7402   -0.3601 C.ar    1  LIG1        0.1981
     13 C          -0.2541    3.0635   -1.9310 C.ar    1  LIG1        0.0903
     14 C           2.4941    0.9506    1.0804 C.3     1  LIG1        0.0767
     15 C           2.9658   -0.4772    1.1834 C.ar    1  LIG1        0.0990
     16 C           0.2777    1.8004   -3.9610 C.ar    1  LIG1        0.0057
     17 C          -0.7129    4.1389   -2.7023 C.ar    1  LIG1       -0.0308
     18 C           3.0180   -1.3188    0.0687 C.ar    1  LIG1        0.1837
     19 C          -0.1921    2.8801   -4.7256 C.ar    1  LIG1        0.1289
     20 C          -0.6715    4.0376   -4.1026 C.ar    1  LIG1       -0.0176
     21 C           3.3967   -2.6494    0.2749 C.ar    1  LIG1        0.1647
     22 C           3.7992   -3.0797    1.5348 C.ar    1  LIG1        0.0018
     23 C           3.7489   -2.1714    2.5718 C.ar    1  LIG1        0.0316
     24 C           3.5851   -1.0643   -2.1848 C.3     1  LIG1        0.0790
     25 C          -0.8043    3.5958   -6.9039 C.3     1  LIG1        0.3893
     26 C           2.3041   -4.4261   -0.6961 C.3     1  LIG1        0.0790
     27 H           1.0008    0.1763   -1.6414 H       1  LIG1        0.1679
     28 H           2.9054    1.5250    1.9187 H       1  LIG1        0.0471
     29 H           2.8676    1.4279    0.1687 H       1  LIG1        0.0471
     30 H           0.6617    0.9044   -4.4375 H       1  LIG1        0.0675
     31 H          -1.0798    5.0359   -2.2144 H       1  LIG1        0.0641
     32 H          -1.0056    4.9020   -4.6695 H       1  LIG1        0.0655
     33 H           4.1411   -4.0937    1.7043 H       1  LIG1        0.0670
     34 H           4.0460   -2.4497    3.5793 H       1  LIG1        0.0831
     35 H           3.5162   -0.2353   -2.8960 H       1  LIG1        0.0660
     36 H           3.3292   -1.9817   -2.7224 H       1  LIG1        0.0660
     37 H           4.6156   -1.1008   -1.8133 H       1  LIG1        0.0660
     38 H          -1.8531    3.7334   -6.6186 H       1  LIG1        0.1520
     39 H           2.2905   -5.0211   -1.6141 H       1  LIG1        0.0660
     40 H           1.3599   -3.8731   -0.6359 H       1  LIG1        0.0660
     41 H           2.4000   -5.1135    0.1510 H       1  LIG1        0.0660
@<TRIPOS>BOND
     1     1     6    2
     2     1    12    1
     3     1    14    1
     4     2    25    1
     5     3    25    1
     6     4    18    1
     7     4    24    1
     8     5    19    1
     9     5    25    1
    10     7    21    1
    11     7    26    1
    12     8    11   ar
    13     8    12   ar
    14     8    27    1
    15     9    12   ar
    16     9    13   ar
    17    10    15   ar
    18    10    23   ar
    19    11    13   ar
    20    11    16   ar
    21    13    17   ar
    22    14    15    1
    23    14    28    1
    24    14    29    1
    25    15    18   ar
    26    16    19   ar
    27    16    30    1
    28    17    20   ar
    29    17    31    1
    30    18    21   ar
    31    19    20   ar
    32    20    32    1
    33    21    22   ar
    34    22    23   ar
    35    22    33    1
    36    23    34    1
    37    24    35    1
    38    24    36    1
    39    24    37    1
    40    25    38    1
    41    26    39    1
    42    26    40    1
    43    26    41    1
