@<TRIPOS>MOLECULE
*****
 46 48 0 0 0
SMALL
GASTEIGER

@<TRIPOS>ATOM
      1 S           1.8236    0.2041    1.1556 S.O     1  LIG1        0.0954
      2 O          -3.4812    0.9516   -0.8855 O.3     1  LIG1       -0.4915
      3 O          -5.4554    5.3027   -1.0847 O.3     1  LIG1       -0.3829
      4 O           1.6545    1.5950    0.6099 O.2     1  LIG1       -0.2488
      5 N           4.3627    0.6305    0.2435 N.ar    1  LIG1       -0.3310
      6 N           3.9350   -1.4707    0.8228 N.ar    1  LIG1       -0.2200
      7 N          -1.0908   -1.7147    1.1828 N.ar    1  LIG1       -0.2585
      8 C           0.9617   -1.0100    0.1202 C.3     1  LIG1        0.0734
      9 C          -0.5349   -0.8846    0.2542 C.ar    1  LIG1        0.0603
     10 C          -1.3004    0.0221   -0.4923 C.ar    1  LIG1        0.0134
     11 C          -2.6714    0.0778   -0.2041 C.ar    1  LIG1        0.1266
     12 C           3.4399   -0.2564    0.7291 C.ar    1  LIG1        0.1981
     13 C           5.5251   -0.0533    0.0055 C.ar    1  LIG1        0.0669
     14 C          -3.7128    2.1302   -0.1008 C.3     1  LIG1        0.0917
     15 C          -4.4662    3.1299   -0.9662 C.3     1  LIG1        0.0049
     16 C           5.2313   -1.3622    0.3773 C.ar    1  LIG1        0.0900
     17 C          -0.7128    0.9611   -1.5067 C.3     1  LIG1       -0.0345
     18 C          -3.2536   -0.7839    0.7154 C.ar    1  LIG1       -0.0015
     19 C          -4.7386    4.4255   -0.2182 C.3     1  LIG1        0.0504
     20 C           6.7695    0.3444   -0.4863 C.ar    1  LIG1       -0.0362
     21 C          -2.4237   -1.6571    1.3807 C.ar    1  LIG1        0.0314
     22 C           6.2235   -2.3458    0.2591 C.ar    1  LIG1       -0.0342
     23 C           7.7467   -0.6518   -0.5971 C.ar    1  LIG1       -0.0597
     24 C           7.4819   -1.9745   -0.2318 C.ar    1  LIG1       -0.0596
     25 C          -5.7392    6.5463   -0.4575 C.3     1  LIG1        0.0364
     26 H           4.1861    1.6139    0.0912 H       1  LIG1        0.1679
     27 H           1.2615   -2.0093    0.4581 H       1  LIG1        0.0470
     28 H           1.2862   -0.9184   -0.9198 H       1  LIG1        0.0470
     29 H          -2.7599    2.5666    0.2252 H       1  LIG1        0.0697
     30 H          -4.3125    1.8780    0.7825 H       1  LIG1        0.0697
     31 H          -5.4091    2.6899   -1.3153 H       1  LIG1        0.0320
     32 H          -3.8993    3.3368   -1.8831 H       1  LIG1        0.0320
     33 H           0.1898    0.5599   -1.9733 H       1  LIG1        0.0279
     34 H          -0.4738    1.9198   -1.0374 H       1  LIG1        0.0279
     35 H          -1.4153    1.1420   -2.3276 H       1  LIG1        0.0279
     36 H          -4.3199   -0.7732    0.9033 H       1  LIG1        0.0669
     37 H          -5.3381    4.2283    0.6780 H       1  LIG1        0.0561
     38 H          -3.7949    4.8969    0.0800 H       1  LIG1        0.0561
     39 H           6.9767    1.3707   -0.7693 H       1  LIG1        0.0639
     40 H          -2.8147   -2.3547    2.1155 H       1  LIG1        0.0831
     41 H           6.0127   -3.3705    0.5444 H       1  LIG1        0.0639
     42 H           8.7335   -0.3904   -0.9750 H       1  LIG1        0.0618
     43 H           8.2610   -2.7272   -0.3283 H       1  LIG1        0.0618
     44 H          -6.2905    7.1712   -1.1652 H       1  LIG1        0.0523
     45 H          -4.8112    7.0592   -0.1873 H       1  LIG1        0.0523
     46 H          -6.3589    6.3944    0.4315 H       1  LIG1        0.0523
@<TRIPOS>BOND
     1     1     4    2
     2     1     8    1
     3     1    12    1
     4     2    11    1
     5     2    14    1
     6     3    19    1
     7     3    25    1
     8     5    12   ar
     9     5    13   ar
    10     5    26    1
    11     6    12   ar
    12     6    16   ar
    13     7     9   ar
    14     7    21   ar
    15     8     9    1
    16     8    27    1
    17     8    28    1
    18     9    10   ar
    19    10    11   ar
    20    10    17    1
    21    11    18   ar
    22    13    16   ar
    23    13    20   ar
    24    14    15    1
    25    14    29    1
    26    14    30    1
    27    15    19    1
    28    15    31    1
    29    15    32    1
    30    16    22   ar
    31    17    33    1
    32    17    34    1
    33    17    35    1
    34    18    21   ar
    35    18    36    1
    36    19    37    1
    37    19    38    1
    38    20    23   ar
    39    20    39    1
    40    21    40    1
    41    22    24   ar
    42    22    41    1
    43    23    24   ar
    44    23    42    1
    45    24    43    1
    46    25    44    1
    47    25    45    1
    48    25    46    1
