REMARK  8 active torsions:
REMARK  status: ('A' for Active; 'I' for Inactive)
REMARK    1  A    between atoms: S_1  and  C_8 
REMARK    2  A    between atoms: S_1  and  C_12 
REMARK    3  A    between atoms: O_2  and  C_11 
REMARK    4  A    between atoms: O_2  and  C_14 
REMARK    5  A    between atoms: O_3  and  C_19 
REMARK    6  A    between atoms: C_8  and  C_9 
REMARK    7  A    between atoms: C_14  and  C_15 
REMARK    8  A    between atoms: C_15  and  C_19 
ROOT
ATOM      1  N   LIG d   1      -1.091  -1.715   1.183  0.00  0.00    -0.264 NA
ATOM      2  C   LIG d   1      -0.535  -0.885   0.254  0.00  0.00     0.054 A 
ATOM      3  C   LIG d   1      -1.300   0.022  -0.492  0.00  0.00    -0.003 A 
ATOM      4  C   LIG d   1      -2.671   0.078  -0.204  0.00  0.00     0.078 A 
ATOM      5  C   LIG d   1      -0.713   0.961  -1.507  0.00  0.00     0.053 C 
ATOM      6  C   LIG d   1      -3.254  -0.784   0.715  0.00  0.00     0.056 A 
ATOM      7  C   LIG d   1      -2.424  -1.657   1.381  0.00  0.00     0.119 A 
ENDROOT
BRANCH   2   8
ATOM      8  C   LIG d   1       0.962  -1.010   0.120  0.00  0.00     0.177 C 
BRANCH   8   9
ATOM      9  S   LIG d   1       1.824   0.204   1.156  0.00  0.00     0.091 S 
ATOM     10  O   LIG d   1       1.655   1.595   0.610  0.00  0.00    -0.249 OA
BRANCH   9  11
ATOM     11  C   LIG d   1       3.440  -0.256   0.729  0.00  0.00     0.198 A 
ATOM     12  N   LIG d   1       4.363   0.630   0.243  0.00  0.00    -0.331 N 
ATOM     13  C   LIG d   1       5.525  -0.053   0.005  0.00  0.00     0.063 A 
ATOM     14  H   LIG d   1       4.186   1.614   0.091  0.00  0.00     0.168 HD
ATOM     15  C   LIG d   1       5.231  -1.362   0.377  0.00  0.00     0.086 A 
ATOM     16  C   LIG d   1       6.769   0.344  -0.486  0.00  0.00     0.032 A 
ATOM     17  N   LIG d   1       3.935  -1.471   0.823  0.00  0.00    -0.221 NA
ATOM     18  C   LIG d   1       6.223  -2.346   0.259  0.00  0.00     0.034 A 
ATOM     19  C   LIG d   1       7.482  -1.974  -0.232  0.00  0.00     0.002 A 
ATOM     20  C   LIG d   1       7.747  -0.652  -0.597  0.00  0.00     0.002 A 
ENDBRANCH   9  11
ENDBRANCH   8   9
ENDBRANCH   2   8
BRANCH   4  21
ATOM     21  O   LIG d   1      -3.481   0.952  -0.885  0.00  0.00    -0.350 OA
BRANCH  21  22
ATOM     22  C   LIG d   1      -3.713   2.130  -0.101  0.00  0.00     0.178 C 
BRANCH  22  23
ATOM     23  C   LIG d   1      -4.466   3.130  -0.966  0.00  0.00     0.053 C 
BRANCH  23  24
ATOM     24  C   LIG d   1      -4.739   4.426  -0.218  0.00  0.00     0.169 C 
BRANCH  24  25
ATOM     25  O   LIG d   1      -5.455   5.303  -1.085  0.00  0.00    -0.396 OA
ATOM     26  C   LIG d   1      -5.739   6.546  -0.458  0.00  0.00     0.201 C 
ENDBRANCH  24  25
ENDBRANCH  23  24
ENDBRANCH  22  23
ENDBRANCH  21  22
ENDBRANCH   4  21
TORSDOF 8
