@<TRIPOS>MOLECULE
*****
 15 15 0 0 0
SMALL
USER_CHARGES

@<TRIPOS>ATOM
      1 C1         -6.8162    2.2240    0.0592 C.ar    1  NONAME1    -0.0588
      2 C2         -8.0376    1.5135    0.0232 C.ar    1  NONAME1    -0.0615
      3 C3         -8.0304    0.1266    0.0149 C.ar    1  NONAME1    -0.0617
      4 C4         -6.8286   -0.5655    0.0229 C.ar    1  NONAME1    -0.0615
      5 C5         -5.6056    0.1442    0.0580 C.ar    1  NONAME1    -0.0588
      6 C6         -5.5906    1.5461    0.0965 C.ar    1  NONAME1    -0.0504
      7 C7         -4.2847    2.3163    0.0752 C.3     1  NONAME1    -0.0397
      8 H1         -6.8534    3.3071    0.0247 H       1  NONAME1     0.0620
      9 H2         -8.9760    2.0572   -0.0033 H       1  NONAME1     0.0618
     10 H3         -8.9786   -0.4236   -0.0075 H       1  NONAME1     0.0618
     11 H4         -6.8229   -1.6508   -0.0035 H       1  NONAME1     0.0618
     12 H5         -4.6837   -0.4255    0.0233 H       1  NONAME1     0.0620
     13 H6         -3.5173    1.6722   -0.3696 H       1  NONAME1     0.0278
     14 H7         -3.7997    2.6390    1.0003 H       1  NONAME1     0.0278
     15 H8         -4.4725    3.2750   -0.4231 H       1  NONAME1     0.0278
@<TRIPOS>BOND
     1     1     2   ar
     2     1     6   ar
     3     2     3   ar
     4     3     4   ar
     5     4     5   ar
     6     5     6   ar
     7     6     7    1
     8     1     8    1
     9     2     9    1
    10     3    10    1
    11     4    11    1
    12     5    12    1
    13     7    13    1
    14     7    14    1
    15     7    15    1
