@<TRIPOS>MOLECULE

21 21 1
SMALL
USER_CHARGES
@<TRIPOS>ATOM
1	C1     1.4850    -2.6950     0.0000	C.2	1	noname	0.0342
2	C2     0.1513    -3.4650     0.0000	C.2	1	noname	0.0034
3	C3     0.1513    -5.0050     0.0000	C.2	1	noname	-0.0471
4	C4     1.4850    -5.7750     0.0000	C.2	1	noname	-0.0260
5	C5     2.8187    -5.0050     0.0000	C.2	1	noname	-0.0027
6	C6     2.8187    -3.4650     0.0000	C.2	1	noname	0.0542
7	O1     4.1524    -2.6950     0.0000	O.3	1	noname	-0.1415
8	C7     5.4860    -3.4650     0.0000	C.2	1	noname	0.1572
9	C8     6.8197    -2.6950     0.0000	C.3	1	noname	0.0224
10	O2     5.4860    -5.0050     0.0000	O.2	1	noname	-0.2509
11	C9     1.4850    -1.1550     0.0000	C.2	1	noname	0.0957
12	O3     0.1513    -0.3850     0.0000	O.2	1	noname	-0.2569
13	O4     2.8187    -0.3850     0.0000	O.3	1	noname	-0.2172
14	H1    -1.1824    -2.6950     0.0000	H	1	noname	0.0632
15	H2    -1.1824    -5.7750     0.0000	H	1	noname	0.0622
16	H3     1.4850    -7.3150     0.0000	H	1	noname	0.0623
17	H4     4.1524    -5.7750     0.0000	H	1	noname	0.0650
18	H5     7.5897    -4.0287     0.0000	H	1	noname	0.0336
19	H6     8.1534    -1.9250     0.0000	H	1	noname	0.0336
20	H7     6.0497    -1.3613     0.0000	H	1	noname	0.0336
21	H8     4.1524    -1.1550     0.0000	H	1	noname	0.2216
@<TRIPOS>BOND
1	1	2	1
2	1	6	2
3	2	3	2
4	3	4	1
5	4	5	2
6	5	6	1
7	6	7	1
8	7	8	1
9	8	9	1
10	8	10	2
11	1	11	1
12	11	12	2
13	11	13	1
14	2	14	1
15	3	15	1
16	4	16	1
17	5	17	1
18	9	18	1
19	9	19	1
20	9	20	1
21	13	21	1
@<TRIPOS>SUBSTRUCTURE
1	noname	1
