@<TRIPOS>MOLECULE
*****
 21 21 0 0 0
SMALL
USER_CHARGES

@<TRIPOS>ATOM
      1 C1          1.6416   -2.7883    0.0003 C.ar    1  NONAME1     0.1010
      2 C2          0.3771   -3.4903    0.0029 C.ar    1  NONAME1    -0.0442
      3 C3          0.3035   -4.8965    0.0011 C.ar    1  NONAME1    -0.0608
      4 C4          1.4886   -5.6238    0.0025 C.ar    1  NONAME1    -0.0582
      5 C5          2.7391   -4.9588   -0.0004 C.ar    1  NONAME1    -0.0184
      6 C6          2.8474   -3.5474   -0.0109 C.ar    1  NONAME1     0.1456
      7 O1          4.2069   -2.8856   -0.1048 O.3     1  NONAME1    -0.4252
      8 C7          5.5104   -3.5217   -0.1888 C.2     1  NONAME1     0.3092
      9 C8          6.7744   -2.6143   -0.2944 C.3     1  NONAME1     0.0336
     10 O2          5.6433   -4.7247   -0.0465 O.2     1  NONAME1    -0.2507
     11 C9          1.5643   -1.2779   -0.0011 C.2     1  NONAME1     0.3404
     12 O3          0.5206   -0.6695   -0.0009 O.2     1  NONAME1    -0.2450
     13 O4          2.7503   -0.6187   -0.0009 O.3     1  NONAME1    -0.4770
     14 H1         -0.5785   -2.9506    0.0007 H       1  NONAME1     0.0627
     15 H2         -0.6574   -5.4242   -0.0001 H       1  NONAME1     0.0618
     16 H3          1.4516   -6.7176    0.0006 H       1  NONAME1     0.0619
     17 H4          3.6109   -5.6022   -0.0024 H       1  NONAME1     0.0654
     18 H5          7.5468   -3.2525    0.1759 H       1  NONAME1     0.0342
     19 H6          7.3640   -2.3076   -1.1799 H       1  NONAME1     0.0342
     20 H7          6.5681   -1.6739    0.2100 H       1  NONAME1     0.0342
     21 H8          3.5543   -1.1631    0.0027 H       1  NONAME1     0.2954
@<TRIPOS>BOND
     1     1     2   ar
     2     1     6   ar
     3     2     3   ar
     4     3     4   ar
     5     4     5   ar
     6     5     6   ar
     7     6     7    1
     8     7     8    1
     9     8     9    1
    10     8    10    2
    11     1    11    1
    12    11    12    2
    13    11    13    1
    14     2    14    1
    15     3    15    1
    16     4    16    1
    17     5    17    1
    18     9    18    1
    19     9    19    1
    20     9    20    1
    21    13    21    1
