@<TRIPOS>MOLECULE
*****
 33 34 0 0 0
SMALL
USER_CHARGES

@<TRIPOS>ATOM
      1 C1          1.4889   -2.8452    0.0120 C.ar    1  NONAME1    -0.0470
      2 C2          0.2402   -3.5813    0.0134 C.ar    1  NONAME1     0.0225
      3 C3          0.3869   -4.9528    0.0072 C.ar    1  NONAME1    -0.0509
      4 C4          1.6164   -5.5942    0.0117 C.ar    1  NONAME1    -0.0608
      5 C5          2.8040   -4.8722    0.0117 C.ar    1  NONAME1    -0.0578
      6 C6          2.8146   -3.4667   -0.0114 C.ar    1  NONAME1    -0.0333
      7 C7         -1.1806   -2.9346    0.0042 C.2     1  NONAME1     0.1931
      8 C8         -2.5815   -3.6684    0.0008 C.ar    1  NONAME1     0.0223
      9 C9         -3.7790   -2.9061   -0.0001 C.ar    1  NONAME1    -0.0509
     10 C10        -5.0708   -3.5104   -0.0002 C.ar    1  NONAME1    -0.0611
     11 C11        -5.2173   -4.8931   -0.0001 C.ar    1  NONAME1    -0.0617
     12 C12        -4.0781   -5.6634   -0.0001 C.ar    1  NONAME1    -0.0611
     13 C13        -2.8090   -5.0560    0.0003 C.ar    1  NONAME1    -0.0509
     14 O1         -1.2076   -1.6994   -0.0012 O.2     1  NONAME1    -0.2867
     15 C14         4.2015   -2.6608   -0.0714 C.3     1  NONAME1     0.0784
     16 C15         4.0084   -1.2387   -0.7123 C.3     1  NONAME1    -0.0482
     17 C16         5.5412   -3.5409   -0.2191 C.2     1  NONAME1     0.3119
     18 O2          6.7014   -2.8419   -0.1757 O.3     1  NONAME1    -0.4802
     19 O3          5.6631   -4.7730   -0.1100 O.2     1  NONAME1    -0.2503
     20 H1          1.4052   -1.7592    0.0106 H       1  NONAME1     0.0628
     21 H2         -0.4224   -5.6325   -0.0042 H       1  NONAME1     0.0625
     22 H3          1.6215   -6.6835    0.0017 H       1  NONAME1     0.0618
     23 H4          3.6885   -5.4977    0.0053 H       1  NONAME1     0.0621
     24 H5         -3.7474   -1.8162    0.0001 H       1  NONAME1     0.0625
     25 H6         -5.9741   -2.9009   -0.0000 H       1  NONAME1     0.0618
     26 H7         -6.1921   -5.3758    0.0000 H       1  NONAME1     0.0618
     27 H8         -4.1415   -6.7513    0.0000 H       1  NONAME1     0.0618
     28 H9         -2.0612   -5.8147    0.0007 H       1  NONAME1     0.0625
     29 H10         4.4444   -2.3449    0.9567 H       1  NONAME1     0.0459
     30 H11         4.8941   -0.6117   -0.5758 H       1  NONAME1     0.0241
     31 H12         3.6549   -1.0956   -1.7497 H       1  NONAME1     0.0241
     32 H13         3.2193   -0.7388   -0.1315 H       1  NONAME1     0.0241
     33 H14         7.4204   -3.5089   -0.0278 H       1  NONAME1     0.2951
@<TRIPOS>BOND
     1     1     2   ar
     2     1     6   ar
     3     2     3   ar
     4     3     4   ar
     5     4     5   ar
     6     5     6   ar
     7     2     7    1
     8     7     8    1
     9     9    10   ar
    10    10    11   ar
    11    11    12   ar
    12    12    13   ar
    13    13     8   ar
    14     9     8   ar
    15     7    14    2
    16     6    15    1
    17    15    17    1
    18    17    18    1
    19    17    19    2
    20    15    16    1
    21     1    20    1
    22     3    21    1
    23     4    22    1
    24     5    23    1
    25     9    24    1
    26    10    25    1
    27    11    26    1
    28    12    27    1
    29    13    28    1
    30    15    29    1
    31    16    30    1
    32    16    31    1
    33    16    32    1
    34    18    33    1
