@<TRIPOS>MOLECULE

33 34 1
SMALL
USER_CHARGES
@<TRIPOS>ATOM
1	C1     1.4850    -2.6950     0.0000	C.2	1	noname	-0.0111
2	C2     0.1513    -3.4650     0.0000	C.2	1	noname	-0.0142
3	C3     0.1513    -5.0050     0.0000	C.2	1	noname	-0.0186
4	C4     1.4850    -5.7750     0.0000	C.2	1	noname	-0.0452
5	C5     2.8187    -5.0050     0.0000	C.2	1	noname	-0.0343
6	C6     2.8187    -3.4650     0.0000	C.2	1	noname	-0.0351
7	C7    -1.1824    -2.6950     0.0000	C.2	1	noname	0.0601
8	C8    -2.5160    -3.4650     0.0000	C.2	1	noname	-0.0168
9	C9    -3.8497    -2.6950     0.0000	C.2	1	noname	-0.0194
10	C10    -5.1834    -3.4650     0.0000	C.2	1	noname	-0.0478
11	C11    -5.1834    -5.0050     0.0000	C.2	1	noname	-0.0426
12	C12    -3.8497    -5.7751     0.0000	C.2	1	noname	-0.0478
13	C13    -2.5160    -5.0050     0.0000	C.2	1	noname	-0.0194
14	O1    -1.1824    -1.1550     0.0000	O.2	1	noname	-0.2975
15	C14     4.1524    -2.6950     0.0000	C.3	1	noname	0.0671
16	C15     4.1524    -1.1550     0.0000	C.3	1	noname	-0.0490
17	C16     5.4860    -3.4650     0.0000	C.2	1	noname	0.1386
18	O2     6.8197    -2.6950     0.0000	O.3	1	noname	-0.2168
19	O3     5.4860    -5.0050     0.0000	O.2	1	noname	-0.2533
20	H1     1.4850    -1.1550     0.0000	H	1	noname	0.0633
21	H2    -1.1824    -5.7750     0.0000	H	1	noname	0.0630
22	H3     1.4850    -7.3150     0.0000	H	1	noname	0.0622
23	H4     4.1524    -5.7750     0.0000	H	1	noname	0.0625
24	H5    -3.8497    -1.1550     0.0000	H	1	noname	0.0630
25	H6    -6.5171    -2.6950     0.0000	H	1	noname	0.0622
26	H7    -6.5171    -5.7750     0.0000	H	1	noname	0.0622
27	H8    -3.8497    -7.3151     0.0000	H	1	noname	0.0622
28	H9    -1.8896    -6.4119     0.0000	H	1	noname	0.0630
29	H10     5.4860    -1.9250     0.0000	H	1	noname	0.0456
30	H11     5.6924    -1.1550     0.0000	H	1	noname	0.0242
31	H12     4.1524     0.3850     0.0000	H	1	noname	0.0242
32	H13     2.6124    -1.1550     0.0000	H	1	noname	0.0242
33	H14     8.1534    -3.4650     0.0000	H	1	noname	0.2213
@<TRIPOS>BOND
1	1	2	1
2	1	6	2
3	2	3	2
4	3	4	1
5	4	5	2
6	5	6	1
7	2	7	1
8	7	8	1
9	9	10	1
10	10	11	2
11	11	12	1
12	12	13	2
13	13	8	1
14	9	8	2
15	7	14	2
16	6	15	1
17	15	17	1
18	17	18	1
19	17	19	2
20	15	16	1
21	1	20	1
22	3	21	1
23	4	22	1
24	5	23	1
25	9	24	1
26	10	25	1
27	11	26	1
28	12	27	1
29	13	28	1
30	15	29	1
31	16	30	1
32	16	31	1
33	16	32	1
34	18	33	1
@<TRIPOS>SUBSTRUCTURE
1	noname	1
