@<TRIPOS>MOLECULE
*****
 30 31 0 0 0
SMALL
USER_CHARGES

@<TRIPOS>ATOM
      1 C1          1.3654   -2.9718   -0.0452 C.ar    1  NONAME1     0.0351
      2 C2          0.3602   -3.7977   -0.5694 C.ar    1  NONAME1    -0.0403
      3 C3          0.4882   -5.1891   -0.5947 C.ar    1  NONAME1    -0.0600
      4 C4          1.6399   -5.7862   -0.1074 C.ar    1  NONAME1    -0.0614
      5 C5          2.6792   -4.9883    0.3597 C.ar    1  NONAME1    -0.0563
      6 C6          2.5823   -3.5803    0.3616 C.ar    1  NONAME1    -0.0156
      7 C7          3.7848   -2.7852    0.8471 C.3     1  NONAME1     0.0716
      8 C8          5.0856   -3.1114    0.1406 C.2     1  NONAME1     0.3091
      9 O1          5.8182   -2.0126   -0.1380 O.3     1  NONAME1    -0.4804
     10 O2          5.5408   -4.2141   -0.1312 O.2     1  NONAME1    -0.2507
     11 N1          1.1737   -1.5826    0.1389 N.pl3   1  NONAME1    -0.3120
     12 C9          0.0524   -0.7056    0.1205 C.ar    1  NONAME1     0.0684
     13 C10        -0.7344    1.5856   -0.3839 C.ar    1  NONAME1    -0.0415
     14 C11        -2.0355    1.2313   -0.0593 C.ar    1  NONAME1    -0.0589
     15 C12        -2.2945   -0.0555    0.4047 C.ar    1  NONAME1    -0.0415
     16 C13        -1.2611   -1.0040    0.5337 C.ar    1  NONAME1     0.0635
     17 C14         0.2856    0.6321   -0.2980 C.ar    1  NONAME1     0.0635
     18 Cl1        -1.7050   -2.4491    1.3797 Cl      1  NONAME1    -0.0816
     19 Cl2         1.8927    1.1568   -0.7023 Cl      1  NONAME1    -0.0816
     20 H1         -0.5533   -3.3682   -0.9696 H       1  NONAME1     0.0636
     21 H2         -0.3225   -5.8024   -0.9782 H       1  NONAME1     0.0618
     22 H3          1.7397   -6.8682   -0.1003 H       1  NONAME1     0.0618
     23 H4          3.5804   -5.4808    0.7225 H       1  NONAME1     0.0621
     24 H5          3.6242   -1.7113    0.7194 H       1  NONAME1     0.0427
     25 H6          3.9258   -2.9507    1.9205 H       1  NONAME1     0.0427
     26 H7          6.6271   -2.3769   -0.5579 H       1  NONAME1     0.2951
     27 H8          2.0056   -1.0671   -0.1433 H       1  NONAME1     0.1522
     28 H9         -0.5139    2.6028   -0.6984 H       1  NONAME1     0.0633
     29 H10        -2.8381    1.9615   -0.1312 H       1  NONAME1     0.0618
     30 H11        -3.3098   -0.3106    0.7045 H       1  NONAME1     0.0633
@<TRIPOS>BOND
     1     1     2   ar
     2     1     6   ar
     3     2     3   ar
     4     3     4   ar
     5     4     5   ar
     6     5     6   ar
     7     6     7    1
     8     7     8    1
     9     8     9    1
    10     8    10    2
    11     1    11    1
    12    11    12    1
    13    13    14   ar
    14    14    15   ar
    15    15    16   ar
    16    13    17   ar
    17    16    12   ar
    18    12    17   ar
    19    16    18    1
    20    17    19    1
    21     2    20    1
    22     3    21    1
    23     4    22    1
    24     5    23    1
    25     7    24    1
    26     7    25    1
    27     9    26    1
    28    11    27    1
    29    13    28    1
    30    14    29    1
    31    15    30    1
