@<TRIPOS>MOLECULE

30 31 1
SMALL
USER_CHARGES
@<TRIPOS>ATOM
1	C1     1.4850    -2.6950     0.0000	C.2	1	noname	-0.0251
2	C2     0.1513    -3.4650     0.0000	C.2	1	noname	-0.0581
3	C3     0.1513    -5.0050     0.0000	C.2	1	noname	-0.0628
4	C4     1.4850    -5.7750     0.0000	C.2	1	noname	-0.0826
5	C5     2.8187    -5.0050     0.0000	C.2	1	noname	-0.0561
6	C6     2.8187    -3.4650     0.0000	C.2	1	noname	-0.0498
7	C7     4.1524    -2.6950     0.0000	C.3	1	noname	0.0602
8	C8     5.4860    -3.4650     0.0000	C.2	1	noname	0.1371
9	O1     6.8197    -2.6950     0.0000	O.3	1	noname	-0.2177
10	O2     5.4860    -5.0050     0.0000	O.2	1	noname	-0.2543
11	N1     1.4850    -1.1550     0.0000	N.3	1	noname	-0.0096
12	C9     0.1513    -0.3850     0.0000	C.2	1	noname	0.0317
13	C10    -1.1823     1.9251     0.0000	C.2	1	noname	-0.0268
14	C11    -2.5160     1.1551     0.0000	C.2	1	noname	-0.0667
15	C12    -2.5160    -0.3850     0.0000	C.2	1	noname	-0.0268
16	C13    -1.1823    -1.1550     0.0000	C.2	1	noname	-0.0076
17	C14     0.1513     1.1551     0.0000	C.2	1	noname	-0.0076
18	Cl1    -1.1823    -2.6950     0.0000	Cl	1	noname	-0.0792
19	Cl2     1.4850     1.9251     0.0000	Cl	1	noname	-0.0792
20	H1    -1.3802    -3.6260     0.0000	H	1	noname	0.0639
21	H2    -1.1824    -5.7750     0.0000	H	1	noname	0.0623
22	H3     1.4850    -7.3150     0.0000	H	1	noname	0.0622
23	H4     4.1524    -5.7750     0.0000	H	1	noname	0.0626
24	H5     3.4294    -1.3352     0.0000	H	1	noname	0.0423
25	H6     4.8753    -1.3353     0.0000	H	1	noname	0.0423
26	H7     8.1534    -3.4650     0.0000	H	1	noname	0.2213
27	H8     2.8187    -0.3850     0.0000	H	1	noname	0.1343
28	H9    -1.1823     3.4651     0.0000	H	1	noname	0.0638
29	H10    -3.8497     1.9251     0.0000	H	1	noname	0.0623
30	H11    -3.8497    -1.1550     0.0000	H	1	noname	0.0638
@<TRIPOS>BOND
1	1	2	1
2	1	6	2
3	2	3	2
4	3	4	1
5	4	5	2
6	5	6	1
7	6	7	1
8	7	8	1
9	8	9	1
10	8	10	2
11	1	11	1
12	11	12	1
13	13	14	1
14	14	15	2
15	15	16	1
16	13	17	2
17	16	12	2
18	12	17	1
19	16	18	1
20	17	19	1
21	2	20	1
22	3	21	1
23	4	22	1
24	5	23	1
25	7	24	1
26	7	25	1
27	9	26	1
28	11	27	1
29	13	28	1
30	14	29	1
31	15	30	1
@<TRIPOS>SUBSTRUCTURE
1	noname	1
