@<TRIPOS>MOLECULE
*****
 26 27 0 0 0
SMALL
USER_CHARGES

@<TRIPOS>ATOM
      1 C1          1.3481   -2.9445   -0.1032 C.ar    1  NONAME1     0.1007
      2 C2          0.1251   -3.6303   -0.1975 C.ar    1  NONAME1    -0.0364
      3 C3          0.0724   -5.0329   -0.1663 C.ar    1  NONAME1    -0.0141
      4 C4          1.2743   -5.7459   -0.0472 C.ar    1  NONAME1    -0.0505
      5 C5          2.4978   -5.0795    0.0504 C.ar    1  NONAME1    -0.0188
      6 C6          2.5298   -3.6852    0.0289 C.ar    1  NONAME1     0.1309
      7 O1          3.7372   -3.0434    0.1392 O.3     1  NONAME1    -0.5059
      8 C7          1.2977   -1.4532   -0.1400 C.2     1  NONAME1     0.3404
      9 O2          0.2464   -0.8320   -0.1196 O.2     1  NONAME1    -0.2450
     10 O3          2.4958   -0.8395   -0.2328 O.3     1  NONAME1    -0.4770
     11 C8         -1.2097   -5.7382   -0.2450 C.ar    1  NONAME1     0.0175
     12 C9         -1.8893   -5.8620   -1.4684 C.ar    1  NONAME1    -0.0486
     13 C10        -3.1072   -6.5446   -1.5364 C.ar    1  NONAME1    -0.0257
     14 C11        -3.6521   -7.0990   -0.3827 C.ar    1  NONAME1     0.1262
     15 C12        -3.0053   -6.9882    0.8386 C.ar    1  NONAME1     0.0094
     16 C13        -1.7911   -6.3128    0.8973 C.ar    1  NONAME1     0.1338
     17 F1         -4.8186   -7.7526   -0.4541 F       1  NONAME1    -0.2054
     18 F2         -1.1724   -6.2167    2.0843 F       1  NONAME1    -0.2048
     19 H1         -0.8013   -3.0611   -0.2838 H       1  NONAME1     0.0633
     20 H2          1.2599   -6.8348   -0.0250 H       1  NONAME1     0.0625
     21 H3          3.4072   -5.6669    0.1411 H       1  NONAME1     0.0654
     22 H4          4.4151   -3.7010    0.3879 H       1  NONAME1     0.2922
     23 H5          3.2445   -1.4757   -0.1994 H       1  NONAME1     0.2954
     24 H6         -1.4692   -5.4319   -2.3759 H       1  NONAME1     0.0625
     25 H7         -3.6334   -6.6468   -2.4809 H       1  NONAME1     0.0646
     26 H8         -3.4377   -7.4199    1.7333 H       1  NONAME1     0.0675
@<TRIPOS>BOND
     1     1     2   ar
     2     1     6   ar
     3     2     3   ar
     4     3     4   ar
     5     4     5   ar
     6     5     6   ar
     7     6     7    1
     8     1     8    1
     9     8     9    2
    10     8    10    1
    11     3    11    1
    12    12    13   ar
    13    13    14   ar
    14    14    15   ar
    15    15    16   ar
    16    16    11   ar
    17    12    11   ar
    18    14    17    1
    19    16    18    1
    20     2    19    1
    21     4    20    1
    22     5    21    1
    23     7    22    1
    24    10    23    1
    25    12    24    1
    26    13    25    1
    27    15    26    1
