@<TRIPOS>MOLECULE

26 27 1
SMALL
USER_CHARGES
@<TRIPOS>ATOM
1	C1     1.4850    -2.6950     0.0000	C.2	1	noname	0.0263
2	C2     0.1513    -3.4650     0.0000	C.2	1	noname	0.0202
3	C3     0.1513    -5.0050     0.0000	C.2	1	noname	-0.0331
4	C4     1.4850    -5.7750     0.0000	C.2	1	noname	-0.0086
5	C5     2.8187    -5.0050     0.0000	C.2	1	noname	-0.0098
6	C6     2.8187    -3.4650     0.0000	C.2	1	noname	0.0531
7	O1     4.1524    -2.6950     0.0000	O.3	1	noname	-0.2758
8	C7     1.4850    -1.1550     0.0000	C.2	1	noname	0.0942
9	O2     0.1513    -0.3850     0.0000	O.2	1	noname	-0.2570
10	O3     2.8187    -0.3850     0.0000	O.3	1	noname	-0.2173
11	C8    -1.1824    -5.7750     0.0000	C.2	1	noname	0.0064
12	C9    -2.5160    -5.0050     0.0000	C.2	1	noname	-0.0198
13	C10    -3.8497    -5.7750     0.0000	C.2	1	noname	-0.0089
14	C11    -3.8497    -7.3150     0.0000	C.2	1	noname	0.0345
15	C12    -2.5160    -8.0851     0.0000	C.2	1	noname	0.0447
16	C13    -1.1824    -7.3150     0.0000	C.2	1	noname	0.0466
17	F1    -5.1834    -8.0850     0.0000	F	1	noname	-0.1638
18	F2     0.1513    -8.0850     0.0000	F	1	noname	-0.1604
19	H1    -1.1824    -2.6950     0.0000	H	1	noname	0.0638
20	H2     1.4850    -7.3150     0.0000	H	1	noname	0.0630
21	H3     4.1524    -5.7750     0.0000	H	1	noname	0.0650
22	H4     5.4860    -3.4650     0.0000	H	1	noname	0.2182
23	H5     4.1524    -1.1550     0.0000	H	1	noname	0.2216
24	H6    -2.5160    -3.4650     0.0000	H	1	noname	0.0631
25	H7    -5.1834    -5.0050     0.0000	H	1	noname	0.0653
26	H8    -2.5160    -9.6251     0.0000	H	1	noname	0.0684
@<TRIPOS>BOND
1	1	2	1
2	1	6	2
3	2	3	2
4	3	4	1
5	4	5	2
6	5	6	1
7	6	7	1
8	1	8	1
9	8	9	2
10	8	10	1
11	3	11	1
12	12	13	1
13	13	14	2
14	14	15	1
15	15	16	2
16	16	11	1
17	12	11	2
18	14	17	1
19	16	18	1
20	2	19	1
21	4	20	1
22	5	21	1
23	7	22	1
24	10	23	1
25	12	24	1
26	13	25	1
27	15	26	1
@<TRIPOS>SUBSTRUCTURE
1	noname	1
