@<TRIPOS>MOLECULE

33 33 1
SMALL
USER_CHARGES
@<TRIPOS>ATOM
1	C1     1.4850    -2.6950     0.0000	C.2	1	noname	-0.0550
2	C2     0.1513    -3.4650     0.0000	C.2	1	noname	-0.0624
3	C3     0.1513    -5.0050     0.0000	C.2	1	noname	-0.0569
4	C4     1.4850    -5.7750     0.0000	C.2	1	noname	-0.0624
5	C5     2.8187    -5.0050     0.0000	C.2	1	noname	-0.0550
6	C6     2.8187    -3.4650     0.0000	C.2	1	noname	-0.0568
7	C7     4.1524    -2.6950     0.0000	C.3	1	noname	0.0671
8	C8     4.1524    -1.1550     0.0000	C.3	1	noname	-0.0490
9	C9     5.4860    -3.4650     0.0000	C.2	1	noname	0.1386
10	O1     6.8197    -2.6950     0.0000	O.3	1	noname	-0.2168
11	O2     5.4860    -5.0050     0.0000	O.2	1	noname	-0.2533
12	C10    -1.1824    -5.7750     0.0000	C.3	1	noname	0.0068
13	C11    -1.1824    -7.3150     0.0000	C.3	1	noname	-0.0430
14	C12    -2.5160    -8.0850     0.0000	C.3	1	noname	-0.0624
15	C13     0.1513    -8.0850     0.0000	C.3	1	noname	-0.0624
16	H1     1.4850    -1.1550     0.0000	H	1	noname	0.0625
17	H2    -1.1824    -2.6950     0.0000	H	1	noname	0.0625
18	H3     1.4850    -7.3150     0.0000	H	1	noname	0.0625
19	H4     4.1524    -5.7750     0.0000	H	1	noname	0.0625
20	H5     5.4860    -1.9250     0.0000	H	1	noname	0.0456
21	H6     5.6924    -1.1550     0.0000	H	1	noname	0.0242
22	H7     4.1524     0.3850     0.0000	H	1	noname	0.0242
23	H8     2.6124    -1.1550     0.0000	H	1	noname	0.0242
24	H9     8.1534    -3.4650     0.0000	H	1	noname	0.2213
25	H10    -1.9984    -4.4690     0.0000	H	1	noname	0.0318
26	H11    -2.7214    -5.7213     0.0000	H	1	noname	0.0318
27	H12    -2.5160    -6.5450     0.0000	H	1	noname	0.0300
28	H13    -3.2860    -6.7513     0.0000	H	1	noname	0.0233
29	H14    -3.8497    -8.8550     0.0000	H	1	noname	0.0233
30	H15    -1.7460    -9.4187     0.0000	H	1	noname	0.0233
31	H16    -0.6187    -9.4187     0.0000	H	1	noname	0.0233
32	H17     1.4850    -8.8550     0.0000	H	1	noname	0.0233
33	H18     0.9213    -6.7513     0.0000	H	1	noname	0.0233
@<TRIPOS>BOND
1	1	2	1
2	1	6	2
3	2	3	2
4	3	4	1
5	4	5	2
6	5	6	1
7	6	7	1
8	7	9	1
9	9	10	1
10	9	11	2
11	7	8	1
12	3	12	1
13	12	13	1
14	13	14	1
15	13	15	1
16	1	16	1
17	2	17	1
18	4	18	1
19	5	19	1
20	7	20	1
21	8	21	1
22	8	22	1
23	8	23	1
24	10	24	1
25	12	25	1
26	12	26	1
27	13	27	1
28	14	28	1
29	14	29	1
30	14	30	1
31	15	31	1
32	15	32	1
33	15	33	1
@<TRIPOS>SUBSTRUCTURE
1	noname	1
