@<TRIPOS>MOLECULE
*****
 33 33 0 0 0
SMALL
USER_CHARGES

@<TRIPOS>ATOM
      1 C1          1.5786   -2.7992    0.0583 C.ar    1  NONAME1    -0.0575
      2 C2          0.3092   -3.5345   -0.0424 C.ar    1  NONAME1    -0.0583
      3 C3          0.2247   -4.9446   -0.1464 C.ar    1  NONAME1    -0.0471
      4 C4          1.4959   -5.5405   -0.1368 C.ar    1  NONAME1    -0.0583
      5 C5          2.7487   -4.8242    0.0124 C.ar    1  NONAME1    -0.0575
      6 C6          2.8578   -3.4223    0.0856 C.ar    1  NONAME1    -0.0339
      7 C7          4.2694   -2.6312    0.1757 C.3     1  NONAME1     0.0784
      8 C8          4.2333   -1.2422   -0.5401 C.3     1  NONAME1    -0.0482
      9 C9          5.5711   -3.4533   -0.1666 C.2     1  NONAME1     0.3119
     10 O1          6.6883   -2.7241   -0.4165 O.3     1  NONAME1    -0.4802
     11 O2          5.7125   -4.6837   -0.1120 O.2     1  NONAME1    -0.2503
     12 C10        -1.1498   -5.7238   -0.2541 C.3     1  NONAME1    -0.0253
     13 C11        -1.4000   -7.0873    0.6059 C.3     1  NONAME1    -0.0427
     14 C12        -2.5421   -7.9846    0.0215 C.3     1  NONAME1    -0.0624
     15 C13        -0.1516   -7.9868    0.7682 C.3     1  NONAME1    -0.0624
     16 H1          1.5028   -1.7096    0.0876 H       1  NONAME1     0.0621
     17 H2         -0.6146   -2.9478   -0.0331 H       1  NONAME1     0.0620
     18 H3          1.6084   -6.6147   -0.2380 H       1  NONAME1     0.0620
     19 H4          3.6285   -5.4650    0.0393 H       1  NONAME1     0.0621
     20 H5          4.4685   -2.3763    1.2342 H       1  NONAME1     0.0459
     21 H6          5.1406   -0.9998   -1.1067 H       1  NONAME1     0.0241
     22 H7          4.1116   -0.4250    0.1908 H       1  NONAME1     0.0241
     23 H8          3.3944   -1.1458   -1.2346 H       1  NONAME1     0.0241
     24 H9          7.4129   -3.3596   -0.6361 H       1  NONAME1     0.2951
     25 H10        -1.9172   -4.9398   -0.0804 H       1  NONAME1     0.0316
     26 H11        -1.4891   -5.9851   -1.2732 H       1  NONAME1     0.0316
     27 H12        -1.7153   -6.8179    1.6251 H       1  NONAME1     0.0299
     28 H13        -3.2811   -7.4043   -0.5358 H       1  NONAME1     0.0232
     29 H14        -3.0953   -8.5176    0.8128 H       1  NONAME1     0.0232
     30 H15        -2.1605   -8.7652   -0.6528 H       1  NONAME1     0.0232
     31 H16        -0.3362   -8.9013    1.3450 H       1  NONAME1     0.0232
     32 H17         0.2640   -8.3088   -0.1969 H       1  NONAME1     0.0232
     33 H18         0.6151   -7.4594    1.3399 H       1  NONAME1     0.0232
@<TRIPOS>BOND
     1     1     2   ar
     2     1     6   ar
     3     2     3   ar
     4     3     4   ar
     5     4     5   ar
     6     5     6   ar
     7     6     7    1
     8     7     9    1
     9     9    10    1
    10     9    11    2
    11     7     8    1
    12     3    12    1
    13    12    13    1
    14    13    14    1
    15    13    15    1
    16     1    16    1
    17     2    17    1
    18     4    18    1
    19     5    19    1
    20     7    20    1
    21     8    21    1
    22     8    22    1
    23     8    23    1
    24    10    24    1
    25    12    25    1
    26    12    26    1
    27    13    27    1
    28    14    28    1
    29    14    29    1
    30    14    30    1
    31    15    31    1
    32    15    32    1
    33    15    33    1
