@<TRIPOS>MOLECULE
*****
 33 34 0 0 0
SMALL
USER_CHARGES

@<TRIPOS>ATOM
      1 C1         -3.7321    1.6831    0.1652 C.ar    1  NONAME1    -0.0458
      2 C2         -4.8383    0.8677    0.0466 C.ar    1  NONAME1    -0.0585
      3 C3         -4.6321   -0.5180   -0.0320 C.ar    1  NONAME1    -0.0597
      4 C4         -3.3152   -1.1049   -0.0824 C.ar    1  NONAME1    -0.0403
      5 C5         -2.1403   -0.3088   -0.0844 C.ar    1  NONAME1     0.0345
      6 C6         -2.4429    1.0742    0.1097 C.ar    1  NONAME1    -0.0264
      7 N1         -0.7616   -0.8837   -0.1912 N.pl3   1  NONAME1    -0.3136
      8 C7          0.6704   -0.4416   -0.2630 C.ar    1  NONAME1     0.0454
      9 C8          2.3649    1.4570   -0.1418 C.ar    1  NONAME1    -0.0600
     10 C9          1.1012    0.9065   -0.4376 C.ar    1  NONAME1    -0.0397
     11 C10         1.7963   -1.2852   -0.0514 C.ar    1  NONAME1     0.0799
     12 C11         3.1378   -0.7485    0.0461 C.ar    1  NONAME1    -0.0460
     13 C12         3.4154    0.6134    0.0602 C.ar    1  NONAME1    -0.0609
     14 C13        -1.3551    2.0278    0.3155 C.3     1  NONAME1    -0.0377
     15 C14        -3.8358    3.1931    0.3025 C.3     1  NONAME1    -0.0394
     16 C15         1.7190   -2.7718   -0.0716 C.2     1  NONAME1     0.3386
     17 O1          0.8730   -3.4364   -0.6036 O.2     1  NONAME1    -0.2451
     18 O2          2.7872   -3.3297    0.5573 O.3     1  NONAME1    -0.4771
     19 H1         -5.8402    1.2962    0.0444 H       1  NONAME1     0.0620
     20 H2         -5.5229   -1.1499   -0.0539 H       1  NONAME1     0.0618
     21 H3         -3.2835   -2.1939   -0.1080 H       1  NONAME1     0.0636
     22 H4         -0.8141   -1.8954   -0.3571 H       1  NONAME1     0.1522
     23 H5          2.5002    2.5390   -0.1433 H       1  NONAME1     0.0618
     24 H6          0.4685    1.6738   -0.8496 H       1  NONAME1     0.0636
     25 H7          4.0020   -1.4097    0.0966 H       1  NONAME1     0.0626
     26 H8          4.4236    1.0098    0.1491 H       1  NONAME1     0.0618
     27 H9         -0.5987    1.3471    0.5824 H       1  NONAME1     0.0278
     28 H10        -1.3279    2.5997    1.2347 H       1  NONAME1     0.0278
     29 H11        -1.2228    2.6241   -0.5949 H       1  NONAME1     0.0278
     30 H12        -3.0053    3.6109    0.8844 H       1  NONAME1     0.0278
     31 H13        -3.7949    3.6756   -0.6801 H       1  NONAME1     0.0278
     32 H14        -4.7246    3.5120    0.8486 H       1  NONAME1     0.0278
     33 H15         2.6955   -4.2967    0.4441 H       1  NONAME1     0.2954
@<TRIPOS>BOND
     1     1     2   ar
     2     1     6   ar
     3     2     3   ar
     4     3     4   ar
     5     4     5   ar
     6     5     6   ar
     7     5     7    1
     8     7     8    1
     9     9    10   ar
    10    11    12   ar
    11    12    13   ar
    12     9    13   ar
    13    10     8   ar
    14     8    11   ar
    15     6    14    1
    16     1    15    1
    17    11    16    1
    18    16    17    2
    19    16    18    1
    20     2    19    1
    21     3    20    1
    22     4    21    1
    23     7    22    1
    24     9    23    1
    25    10    24    1
    26    12    25    1
    27    13    26    1
    28    14    27    1
    29    14    28    1
    30    14    29    1
    31    15    30    1
    32    15    31    1
    33    15    32    1
    34    18    33    1
