@<TRIPOS>MOLECULE

33 34 1
SMALL
USER_CHARGES
@<TRIPOS>ATOM
1	C1    -3.5750     1.7600     0.0000	C.2	1	noname	-0.0663
2	C2    -4.9087     0.9900     0.0000	C.2	1	noname	-0.0918
3	C3    -4.9087    -0.5500     0.0000	C.2	1	noname	-0.0740
4	C4    -3.5750    -1.3200     0.0000	C.2	1	noname	-0.0712
5	C5    -2.2413    -0.5500     0.0000	C.2	1	noname	-0.0405
6	C6    -2.2413     0.9900     0.0000	C.2	1	noname	-0.0639
7	N1    -0.9076    -1.3200     0.0000	N.3	1	noname	-0.0172
8	C7     0.4260    -0.5500     0.0000	C.2	1	noname	0.0196
9	C8     1.7597     1.7601     0.0000	C.2	1	noname	-0.0373
10	C9     0.4260     0.9900     0.0000	C.2	1	noname	-0.0438
11	C10     1.7597    -1.3200     0.0000	C.2	1	noname	-0.0086
12	C11     3.0934    -0.5500     0.0000	C.2	1	noname	-0.0087
13	C12     3.0934     0.9900     0.0000	C.2	1	noname	-0.0680
14	C13    -0.9076     1.7600     0.0000	C.3	1	noname	0.0013
15	C14    -3.5750     3.3000     0.0000	C.3	1	noname	-0.0019
16	C15     1.7597    -2.8600     0.0000	C.2	1	noname	0.0853
17	O1     0.4260    -3.6300     0.0000	O.2	1	noname	-0.2586
18	O2     3.0934    -3.6300     0.0000	O.3	1	noname	-0.2183
19	H1    -6.2424     1.7600     0.0000	H	1	noname	0.0625
20	H2    -6.2424    -1.3200     0.0000	H	1	noname	0.0623
21	H3    -3.5750    -2.8600     0.0000	H	1	noname	0.0639
22	H4    -0.9076    -2.8600     0.0000	H	1	noname	0.1342
23	H5     1.7597     3.3001     0.0000	H	1	noname	0.0623
24	H6    -1.3697     2.2220     0.0000	H	1	noname	0.0639
25	H7     4.4271    -1.3200     0.0000	H	1	noname	0.0631
26	H8     4.4271     1.7600     0.0000	H	1	noname	0.0622
27	H9    -0.1377     0.4263     0.0000	H	1	noname	0.0280
28	H10     0.4260     2.5300     0.0000	H	1	noname	0.0280
29	H11    -1.5236     2.9397     0.0000	H	1	noname	0.0280
30	H12    -2.0350     3.3000     0.0000	H	1	noname	0.0280
31	H13    -3.5750     4.8400     0.0000	H	1	noname	0.0280
32	H14    -5.1150     3.3000     0.0000	H	1	noname	0.0280
33	H15     3.0934    -5.1700     0.0000	H	1	noname	0.2216
@<TRIPOS>BOND
1	1	2	1
2	1	6	2
3	2	3	2
4	3	4	1
5	4	5	2
6	5	6	1
7	5	7	1
8	7	8	1
9	9	10	1
10	11	12	2
11	12	13	1
12	9	13	2
13	10	8	2
14	8	11	1
15	6	14	1
16	1	15	1
17	11	16	1
18	16	17	2
19	16	18	1
20	2	19	1
21	3	20	1
22	4	21	1
23	7	22	1
24	9	23	1
25	10	24	1
26	12	25	1
27	13	26	1
28	14	27	1
29	14	28	1
30	14	29	1
31	15	30	1
32	15	31	1
33	15	32	1
34	18	33	1
@<TRIPOS>SUBSTRUCTURE
1	noname	1
