@<TRIPOS>MOLECULE
*****
 31 32 0 0 0
SMALL
USER_CHARGES

@<TRIPOS>ATOM
      1 C1          1.4851   -2.8545   -0.0763 C.ar    1  NONAME1    -0.0501
      2 C2          0.1621   -3.5523   -0.0176 C.ar    1  NONAME1    -0.0174
      3 C3          0.1554   -4.9589   -0.0046 C.ar    1  NONAME1    -0.0144
      4 C4          1.4464   -5.5816   -0.0112 C.ar    1  NONAME1    -0.0536
      5 C5          2.7119   -4.8788   -0.0723 C.ar    1  NONAME1    -0.0572
      6 C6          2.7990   -3.4746   -0.1360 C.ar    1  NONAME1    -0.0334
      7 C7          4.2314   -2.6625   -0.3309 C.3     1  NONAME1     0.0784
      8 C8          5.5661   -3.4451    0.0323 C.2     1  NONAME1     0.3119
      9 O1          6.7134   -2.7193    0.0386 O.3     1  NONAME1    -0.4802
     10 O2          5.7005   -4.6830    0.0923 O.2     1  NONAME1    -0.2503
     11 C9         -1.1473   -2.9318    0.0001 C.ar    1  NONAME1    -0.0506
     12 C10        -2.3855   -3.6659   -0.0162 C.ar    1  NONAME1    -0.0194
     13 C11        -2.3848   -5.0718   -0.0289 C.ar    1  NONAME1     0.1207
     14 C12        -1.1200   -5.6866   -0.0068 C.ar    1  NONAME1    -0.0122
     15 C13         4.1369   -1.1735    0.1224 C.3     1  NONAME1    -0.0482
     16 O3         -3.5976   -5.7369   -0.1265 O.3     1  NONAME1    -0.4951
     17 C14        -3.7330   -7.1317    0.2399 C.3     1  NONAME1     0.0788
     18 H1          1.4000   -1.7672   -0.0742 H       1  NONAME1     0.0627
     19 H2          1.4917   -6.6763    0.0134 H       1  NONAME1     0.0624
     20 H3          3.6017   -5.5113   -0.0614 H       1  NONAME1     0.0621
     21 H4          4.4281   -2.5408   -1.4116 H       1  NONAME1     0.0459
     22 H5          7.4705   -3.3610    0.0452 H       1  NONAME1     0.2951
     23 H6         -1.2138   -1.8369    0.0016 H       1  NONAME1     0.0625
     24 H7         -3.3294   -3.1060   -0.0254 H       1  NONAME1     0.0654
     25 H8         -1.0953   -6.7734   -0.0285 H       1  NONAME1     0.0660
     26 H9          4.7018   -0.9380    1.0276 H       1  NONAME1     0.0241
     27 H10         4.4512   -0.4572   -0.6595 H       1  NONAME1     0.0241
     28 H11         3.1029   -0.8803    0.2899 H       1  NONAME1     0.0241
     29 H12        -4.7250   -7.2903    0.6959 H       1  NONAME1     0.0660
     30 H13        -3.7066   -7.8176   -0.6235 H       1  NONAME1     0.0660
     31 H14        -3.0049   -7.4452    0.9899 H       1  NONAME1     0.0660
@<TRIPOS>BOND
     1     1     2   ar
     2     1     6   ar
     3     2     3   ar
     4     3     4   ar
     5     4     5   ar
     6     5     6   ar
     7     6     7    1
     8     7     8    1
     9     8     9    1
    10     8    10    2
    11    11    12   ar
    12    12    13   ar
    13    13    14   ar
    14    11     2   ar
    15    14     3   ar
    16     7    15    1
    17    13    16    1
    18    16    17    1
    19     1    18    1
    20     4    19    1
    21     5    20    1
    22     7    21    1
    23     9    22    1
    24    11    23    1
    25    12    24    1
    26    14    25    1
    27    15    26    1
    28    15    27    1
    29    15    28    1
    30    17    29    1
    31    17    30    1
    32    17    31    1
