@<TRIPOS>MOLECULE

31 32 1
SMALL
USER_CHARGES
@<TRIPOS>ATOM
1	C1     1.4850    -2.6950     0.0000	C.2	1	noname	-0.0418
2	C2     0.1513    -3.4650     0.0000	C.2	1	noname	-0.0481
3	C3     0.1513    -5.0050     0.0000	C.2	1	noname	-0.0323
4	C4     1.4850    -5.7750     0.0000	C.2	1	noname	-0.0430
5	C5     2.8187    -5.0050     0.0000	C.2	1	noname	-0.0482
6	C6     2.8187    -3.4650     0.0000	C.2	1	noname	-0.0444
7	C7     4.1524    -2.6950     0.0000	C.3	1	noname	0.0671
8	C8     5.4860    -3.4650     0.0000	C.2	1	noname	0.1386
9	O1     6.8197    -2.6950     0.0000	O.3	1	noname	-0.2168
10	O2     5.4860    -5.0050     0.0000	O.2	1	noname	-0.2533
11	C9    -1.1823    -2.6950     0.0000	C.2	1	noname	-0.0375
12	C10    -2.5160    -3.4650     0.0000	C.2	1	noname	-0.0259
13	C11    -2.5160    -5.0050     0.0000	C.2	1	noname	0.0044
14	C12    -1.1823    -5.7750     0.0000	C.2	1	noname	-0.0172
15	C13     4.1524    -1.1550     0.0000	C.3	1	noname	-0.0490
16	O3    -3.8497    -5.7750     0.0000	O.3	1	noname	-0.2769
17	C14    -3.8497    -7.3150     0.0000	C.3	1	noname	0.0423
18	H1     1.4850    -1.1550     0.0000	H	1	noname	0.0632
19	H2     1.4850    -7.3150     0.0000	H	1	noname	0.0629
20	H3     4.1524    -5.7750     0.0000	H	1	noname	0.0625
21	H4     5.4860    -1.9250     0.0000	H	1	noname	0.0456
22	H5     8.1534    -3.4650     0.0000	H	1	noname	0.2213
23	H6    -1.1823    -1.1550     0.0000	H	1	noname	0.0630
24	H7    -3.8497    -2.6950     0.0000	H	1	noname	0.0650
25	H8    -1.1823    -7.3150     0.0000	H	1	noname	0.0656
26	H9     5.6924    -1.1550     0.0000	H	1	noname	0.0242
27	H10     4.1524     0.3850     0.0000	H	1	noname	0.0242
28	H11     2.6124    -1.1550     0.0000	H	1	noname	0.0242
29	H12    -5.3897    -7.3150     0.0000	H	1	noname	0.0535
30	H13    -3.8497    -8.8550     0.0000	H	1	noname	0.0535
31	H14    -2.3097    -7.3150     0.0000	H	1	noname	0.0535
@<TRIPOS>BOND
1	1	2	2
2	1	6	1
3	2	3	1
4	3	4	2
5	4	5	1
6	5	6	2
7	6	7	1
8	7	8	1
9	8	9	1
10	8	10	2
11	11	12	2
12	12	13	1
13	13	14	2
14	11	2	1
15	14	3	1
16	7	15	1
17	13	16	1
18	16	17	1
19	1	18	1
20	4	19	1
21	5	20	1
22	7	21	1
23	9	22	1
24	11	23	1
25	12	24	1
26	14	25	1
27	15	26	1
28	15	27	1
29	15	28	1
30	17	29	1
31	17	30	1
32	17	31	1
@<TRIPOS>SUBSTRUCTURE
1	noname	1
