@<TRIPOS>MOLECULE

20 20 1
SMALL
USER_CHARGES
@<TRIPOS>ATOM
1	C1     1.4850    -2.6950     0.0000	C.2	1	noname	-0.0268
2	C2     0.1513    -3.4650     0.0000	C.2	1	noname	-0.0248
3	C3     0.1513    -5.0050     0.0000	C.2	1	noname	-0.0023
4	C4     1.4850    -5.7750     0.0000	C.2	1	noname	-0.0248
5	C5     2.8187    -5.0050     0.0000	C.2	1	noname	-0.0268
6	C6     2.8187    -3.4650     0.0000	C.2	1	noname	-0.0347
7	N1     4.1524    -2.6950     0.0000	N.3	1	noname	-0.1430
8	C7     5.4860    -3.4650     0.0000	C.2	1	noname	0.1269
9	C8     6.8197    -2.6950     0.0000	C.3	1	noname	0.0098
10	O1     5.4860    -5.0050     0.0000	O.2	1	noname	-0.2773
11	O2    -1.1824    -5.7750     0.0000	O.3	1	noname	-0.2867
12	H1     1.4850    -1.1550     0.0000	H	1	noname	0.0640
13	H2    -1.1824    -2.6950     0.0000	H	1	noname	0.0650
14	H3     1.4850    -7.3150     0.0000	H	1	noname	0.0650
15	H4     4.1524    -5.7750     0.0000	H	1	noname	0.0640
16	H5     4.1524    -1.1550     0.0000	H	1	noname	0.1370
17	H6     7.5897    -4.0287     0.0000	H	1	noname	0.0324
18	H7     8.1534    -1.9250     0.0000	H	1	noname	0.0324
19	H8     6.0497    -1.3613     0.0000	H	1	noname	0.0324
20	H9    -2.5160    -5.0050     0.0000	H	1	noname	0.2181
@<TRIPOS>BOND
1	1	2	1
2	1	6	2
3	2	3	2
4	3	4	1
5	4	5	2
6	5	6	1
7	6	7	1
8	7	8	1
9	8	9	1
10	8	10	2
11	3	11	1
12	1	12	1
13	2	13	1
14	4	14	1
15	5	15	1
16	7	16	1
17	9	17	1
18	9	18	1
19	9	19	1
20	11	20	1
@<TRIPOS>SUBSTRUCTURE
1	noname	1
